FMN
  -OEChem-10062314223D

 52 54  0     1  0  0  0  0  0999 V2000
   33.8640    7.2250   13.5830 N   0  0  0  0  0  0  0  0  0  0  0  0
   33.0310    6.3190   13.0620 C   0  0  0  0  0  0  0  0  0  0  0  0
   33.1850    5.1330   13.2150 O   0  0  0  0  0  0  0  0  0  0  0  0
   31.9740    6.7210   12.1760 N   0  0  0  0  0  0  0  0  0  0  0  0
   31.7880    8.0070   11.8260 C   0  0  0  0  0  0  0  0  0  0  0  0
   30.8990    8.3580   11.0370 O   0  0  0  0  0  0  0  0  0  0  0  0
   32.7360    8.9900   12.3570 C   0  0  0  0  0  0  0  0  0  0  0  0
   32.5590   10.2790   12.1300 N   0  0  0  0  0  0  0  0  0  0  0  0
   33.3450   11.1860   12.7220 C   0  0  0  0  0  0  0  0  0  0  0  0
   33.1220   12.6070   12.4870 C   0  0  0  0  0  0  0  0  0  0  0  0
   33.8140   13.5180   13.2260 C   0  0  0  0  0  0  0  0  0  0  0  0
   33.4890   15.0180   13.1220 C   0  0  0  0  0  0  0  0  0  0  0  0
   34.8930   13.1170   14.0900 C   0  0  0  0  0  0  0  0  0  0  0  0
   35.8120   14.1150   14.7780 C   0  0  0  0  0  0  0  0  0  0  0  0
   35.1530   11.7920   14.2730 C   0  0  0  0  0  0  0  0  0  0  0  0
   34.3820   10.8090   13.6740 C   0  0  0  0  0  0  0  0  0  0  0  0
   34.5570    9.4340   13.8830 N   0  0  0  0  0  0  0  0  0  0  0  0
   33.7860    8.4950   13.2630 C   0  0  0  0  0  0  0  0  0  0  0  0
   35.5540    8.9250   14.8610 C   0  0  0  0  0  0  0  0  0  0  0  0
   34.7890    8.5870   16.1570 C   0  0  2  0  0  0  0  0  0  0  0  0
   34.4170    9.8290   16.7940 O   0  0  0  0  0  0  0  0  0  0  0  0
   35.6810    7.8210   17.1500 C   0  0  2  0  0  0  0  0  0  0  0  0
   36.8490    8.6620   17.4880 O   0  0  0  0  0  0  0  0  0  0  0  0
   36.2120    6.5180   16.5910 C   0  0  2  0  0  0  0  0  0  0  0  0
   35.1490    5.8040   15.9090 O   0  0  0  0  0  0  0  0  0  0  0  0
   36.7120    5.6340   17.7210 C   0  0  0  0  0  0  0  0  0  0  0  0
   35.6040    5.2520   18.5790 O   0  0  0  0  0  0  0  0  0  0  0  0
   35.8370    4.6280   20.0380 P   0  0  0  0  0  0  0  0  0  0  0  0
   36.5850    5.6920   20.8020 O   0  0  0  0  0  0  0  0  0  0  0  0
   36.6820    3.3640   19.8470 O   0  0  0  0  0  0  0  0  0  0  0  0
   34.4360    4.3060   20.5540 O   0  0  0  0  0  0  0  0  0  0  0  0
   31.3580    6.0240   11.8080 H   0  0  0  0  0  0  0  0  0  0  0  0
   32.4170   12.9330   11.7370 H   0  0  0  0  0  0  0  0  0  0  0  0
   32.7330   15.2830   13.8760 H   0  0  0  0  0  0  0  0  0  0  0  0
   34.4030   15.6040   13.2970 H   0  0  0  0  0  0  0  0  0  0  0  0
   33.0980   15.2400   12.1180 H   0  0  0  0  0  0  0  0  0  0  0  0
   35.4060   14.3660   15.7690 H   0  0  0  0  0  0  0  0  0  0  0  0
   36.8130   13.6730   14.8930 H   0  0  0  0  0  0  0  0  0  0  0  0
   35.8830   15.0280   14.1690 H   0  0  0  0  0  0  0  0  0  0  0  0
   35.9820   11.5000   14.9010 H   0  0  0  0  0  0  0  0  0  0  0  0
   36.0430    8.0230   14.4660 H   0  0  0  0  0  0  0  0  0  0  0  0
   36.3130    9.6960   15.0610 H   0  0  0  0  0  0  0  0  0  0  0  0
   33.9000    7.9850   15.9160 H   0  0  0  0  0  0  0  0  0  0  0  0
   33.9430    9.6440   17.5970 H   0  0  0  0  0  0  0  0  0  0  0  0
   35.1000    7.6130   18.0610 H   0  0  0  0  0  0  0  0  0  0  0  0
   37.4070    8.1980   18.1010 H   0  0  0  0  0  0  0  0  0  0  0  0
   37.0390    6.7270   15.8970 H   0  0  0  0  0  0  0  0  0  0  0  0
   35.4880    4.9880   15.5610 H   0  0  0  0  0  0  0  0  0  0  0  0
   37.1750    4.7300   17.2990 H   0  0  0  0  0  0  0  0  0  0  0  0
   37.4580    6.1850   18.3120 H   0  0  0  0  0  0  0  0  0  0  0  0
   37.5330    3.4870   20.2510 H   0  0  0  0  0  0  0  0  0  0  0  0
   34.2440    4.8490   21.3090 H   0  0  0  0  0  0  0  0  0  0  0  0
  1  2  1  0  0  0  0
  1 18  2  0  0  0  0
  2  3  2  0  0  0  0
  2  4  1  0  0  0  0
  4  5  1  0  0  0  0
  4 32  1  0  0  0  0
  5  6  2  0  0  0  0
  5  7  1  0  0  0  0
  7  8  2  0  0  0  0
  7 18  1  0  0  0  0
  8  9  1  0  0  0  0
  9 10  2  0  0  0  0
  9 16  1  0  0  0  0
 10 11  1  0  0  0  0
 10 33  1  0  0  0  0
 11 12  1  0  0  0  0
 11 13  2  0  0  0  0
 12 34  1  0  0  0  0
 12 35  1  0  0  0  0
 12 36  1  0  0  0  0
 13 14  1  0  0  0  0
 13 15  1  0  0  0  0
 14 37  1  0  0  0  0
 14 38  1  0  0  0  0
 14 39  1  0  0  0  0
 15 16  2  0  0  0  0
 15 40  1  0  0  0  0
 16 17  1  0  0  0  0
 17 18  1  0  0  0  0
 17 19  1  0  0  0  0
 19 20  1  0  0  0  0
 19 41  1  0  0  0  0
 19 42  1  0  0  0  0
 20 21  1  0  0  0  0
 20 22  1  0  0  0  0
 20 43  1  0  0  0  0
 21 44  1  0  0  0  0
 22 23  1  0  0  0  0
 22 24  1  0  0  0  0
 22 45  1  0  0  0  0
 23 46  1  0  0  0  0
 24 25  1  0  0  0  0
 24 26  1  0  0  0  0
 24 47  1  0  0  0  0
 25 48  1  0  0  0  0
 26 27  1  0  0  0  0
 26 49  1  0  0  0  0
 26 50  1  0  0  0  0
 27 28  1  0  0  0  0
 28 29  2  0  0  0  0
 28 30  1  0  0  0  0
 28 31  1  0  0  0  0
 30 51  1  0  0  0  0
 31 52  1  0  0  0  0
M  END
> <OPENEYE_ISO_SMILES>
Cc1cc2c(cc1C)n(c-3nc(=O)[nH]c(=O)c3n2)C[C@@H]([C@@H]([C@@H](COP(=O)(O)O)O)O)O

> <OPENEYE_INCHI>
InChI=1S/C17H21N4O9P/c1-7-3-9-10(4-8(7)2)21(15-13(18-9)16(25)20-17(26)19-15)5-11(22)14(24)12(23)6-30-31(27,28)29/h3-4,11-12,14,22-24H,5-6H2,1-2H3,(H,20,25,26)(H2,27,28,29)/t11-,12+,14-/m0/s1

> <OPENEYE_INCHIKEY>
FVTCRASFADXXNN-SCRDCRAPSA-N

> <FORMULA>
C17H21N4O9P

$$$$
